puts " REF:"
puts " Structural Engineering and Mechanics, Vol. 48, No. 6 (2013) 879-914"
puts " DOI: http://dx.doi.org/10.12989/sem.2013.48.6.879"
puts " Comprehensive evaluation of structural geometrical nonlinear solution techniques "
puts " Part II: Comparing efficiencies of the methods"
puts " M. Rezaiee-Pajand , M. Ghalishooyan and M. Salehi-Ahmadabad "
puts " 3.14 Problem fourteen page 27 "
puts " double layer circular dome"

wipe

model basic -ndm 3 -ndf 3;

node	0	13	0	0
node	1	12.71591889	2.702851596	0
node	2	11.87609127	5.287575642	0
node	3	10.51722162	7.641207326	0
node	4	8.698699051	9.660881679	0
node	5	6.500001702	11.25832927	0
node	6	4.01722317	12.36373398	0
node	7	1.358872759	12.92878435	0
node	8	-1.358866895	12.92878497	0
node	9	-4.017217562	12.36373581	0
node	10	-6.499996596	11.25833221	0
node	11	-8.698694669	9.660885625	0
node	12	-10.51721815	7.641212096	0
node	13	-11.87608887	5.287581029	0
node	14	-12.71591767	2.702857364	0
node	15	-13	0	0
node	16	-12.71592012	-2.702845828	0
node	17	-11.87609367	-5.287570255	0
node	18	-10.51722509	-7.641202555	0
node	19	-8.698703433	-9.660877733	0
# ... 371 like lines cut

set i 0
while {$i<30} {
    fix $i 1 1 1
	incr i
}
	

set A 450
set matTag 1
uniaxialMaterial Elastic $matTag 2.1e5

 element	corotTruss	0	30	0	$A	$matTag
element	corotTruss	1	31	1	$A	$matTag
element	corotTruss	2	32	2	$A	$matTag
element	corotTruss	3	33	3	$A	$matTag
element	corotTruss	4	34	4	$A	$matTag
element	corotTruss	5	35	5	$A	$matTag
element	corotTruss	6	36	6	$A	$matTag
element	corotTruss	7	37	7	$A	$matTag
element	corotTruss	8	38	8	$A	$matTag
element	corotTruss	9	39	9	$A	$matTag
element	corotTruss	10	40	10	$A	$matTag
element	corotTruss	11	41	11	$A	$matTag
element	corotTruss	12	42	12	$A	$matTag
element	corotTruss	13	43	13	$A	$matTag
element	corotTruss	14	44	14	$A	$matTag
element	corotTruss	15	45	15	$A	$matTag
element	corotTruss	16	46	16	$A	$matTag
element	corotTruss	17	47	17	$A	$matTag
element	corotTruss	18	48	18	$A	$matTag
element	corotTruss	19	49	19	$A	$matTag
# ... 1450 like lines cut


 
 pattern Plain 1 Linear { 
load 390 0 0 -1e6
}


set tNode 390
recorder Node -file nodeDisp.txt  -time -node 390 -dof 1 2 3 disp

numberer Plain

system SparseSPD

constraints Transformation

test NormUnbalance 1e-5 8

algorithm Newton;

set arc_length 1.0;

#$type = 1 Minimum Residual Disp ;
#$type = 2 Normal Plain ;
#$type = 3 Update Normal Plain ;
#$type = 4 Cylindrical Arc-Length ;
set type 1;

integrator EQPath $arc_length $type



analysis Static;

puts "start"

set i 0;
set ret 0;
while {$i<165 && $ret==0} {
	incr i
	set ret [analyze 1];
}

puts "done"
