

wipe ; #============================
model basic -ndm 2 -ndf 2


node 1   0.0  0.0
node 2   10.0  0.0   -mass 10000.0  10000.0
 
fix 1 1 1 
fix 2 0 1



#uniaxialMaterial SteelBRB tag      E     sigmaY0 sigmaY_T alpha_T beta_T delta_T sigmaY_C alpha_C beta_C delta_C
 uniaxialMaterial SteelBRB 1    190000.0   275.0   440.0    0.8     0.01   0.80   528.0    0.6   0.02  1.00
 
 
# element truss trussID node1 node2  A     matID
 element truss     1      1     2    1     1 
 
 




recorder Node -file disp.out -time -precision 16 -node 2 -dof 1 2 disp 

recorder Element -file stress.out  -time  -ele 1  material stress 
recorder Element -file strain.out  -time  -ele 1  material strain

#set tabas "Path -filePath tabas.txt -dt 0.02 -factor 1"
#pattern UniformExcitation  1   1  -accel      $tabas


pattern Plain 1 {Series -time {0
0.01
0.02
0.03
0.04
0.05
0.06
0.07
0.08
0.09
0.1
0.11
0.12
0.13
0.14
0.15
0.16
0.17
0.18
0.19
0.2
# ... 3097 like lines cut
} -values { 0
0.0309015
0.061803
0.0487557
0.0357084
0.02271015
0.0097119
0.02584935
0.0419868
0.0581733
0.0743598
0.0906444
0.106929
0.0869166
0.0669042
0.04703895
0.0271737
0.00730845
-0.0125568
0.011772
0.0361008
# ... 3096 like lines cut
-0.0002943       } } {
   
      load 2  90.0 0.0 
 
}


constraints Plain
numberer RCM
test NormDispIncr 1.E-12 50  
algorithm Newton 
system BandSPD

#integrator Newmark 0.55 0.275625  0. 0. 0. 0.
# (0.55+0.5)^2/4=0.275625
#analysis Transient
#analyze 1000  0.01

integrator LoadControl 0.001;                             #, 



analysis Static                                         #  
analyze 10000;